Circuit: * C:\Users\quita\Documents\PAD_2023.02.01 Qumkuat SS22\OpenSPS\simulations\sps_v2.asc

WARNING: Less than two connections to node u1:b:219.  This node is used by e:u1:b:5.
WARNING: Less than two connections to node u1:b:220.  This node is used by r:u1:b:1.
WARNING: Less than two connections to node u3:b:219.  This node is used by e:u3:b:5.
WARNING: Less than two connections to node u3:b:220.  This node is used by r:u3:b:1.
WARNING: Less than two connections to node u5:b:219.  This node is used by e:u5:b:5.
WARNING: Less than two connections to node u5:b:220.  This node is used by r:u5:b:1.
Direct Newton iteration for .op point succeeded.

Date: Sat Apr  1 01:39:14 2023
Total elapsed time: 4.292 seconds.

tnom = 27
temp = 27
method = modified trap
totiter = 51313
traniter = 51285
tranpoints = 25266
accept = 25192
rejected = 74
matrix size = 408
fillins = 340
solver = Normal
Avg thread counts: 1.0/1.0/1.0/1.0
Matrix Compiler1: 32.86 KB object code size  17.1/12.0/[4.0]
Matrix Compiler2: 35.52 KB object code size  9.2/14.9/[4.7]

